32
E = -656.271713 Hartree G = -656.039797 Hartree
C -1.89810 0.28782 0.00000
C -1.10297 0.14967 -1.30063
C -1.10297 0.14967 1.30063
C -0.34555 1.41509 -1.60973
C -0.34556 1.41509 1.60973
C 0.17927 2.29545 -0.73393
C 0.17927 2.29545 0.73393
O -3.09361 0.49952 0.00000
H -0.19055 1.61092 -2.66944
H 0.70463 3.14466 -1.16875
H 0.70463 3.14466 1.16875
H -0.19055 1.61092 2.66944
C -0.14278 -1.11674 1.18118
H -1.83716 -0.03410 2.09215
C -0.14278 -1.11674 -1.18118
H -1.83716 -0.03410 -2.09215
C 0.77921 -0.87320 0.00000
C -0.96446 -2.28893 -0.67031
H 0.35155 -1.28838 -2.13979
C -0.96446 -2.28893 0.67031
H 0.35155 -1.28838 2.13979
H -1.53973 -2.94741 -1.31350
H -1.53973 -2.94741 1.31351
C 2.06302 -0.49614 0.00000
C 2.84950 -0.24447 1.26384
C 2.84950 -0.24447 -1.26384
H 2.28492 -0.45491 -2.17453
H 3.76515 -0.85149 -1.28148
H 3.16527 0.80675 -1.30778
H 2.28491 -0.45489 2.17453
H 3.16528 0.80675 1.30777
H 3.76514 -0.85151 1.28149