32
E = -656.281191 Hartree G = -656.046582 Hartree
C 1.76004 -0.99068 0.48597
C 0.79502 -1.35525 1.55174
C 1.30453 -0.71175 -0.95676
C -0.54193 -1.46735 1.47037
C 0.32210 -1.72157 -1.50354
C -1.41123 -1.22934 0.25686
C -0.88460 -1.93564 -0.98012
O 2.94592 -0.88398 0.76536
H -2.39931 -1.65034 0.47486
C 0.74412 0.74881 -1.06805
H 2.22468 -0.74522 -1.54664
C 0.02459 2.17439 0.62475
C -0.37210 1.09097 -0.08342
C 1.35312 2.61242 0.18785
C 1.78942 1.79807 -0.79076
H 0.37574 0.85721 -2.09917
C -1.67317 0.33044 0.03798
C -2.51928 0.51204 -1.24317
C -2.49285 0.84535 1.23716
H -1.93464 0.75738 2.17472
H -2.75997 1.89849 1.09966
H -3.42479 0.27683 1.33562
H -1.98442 0.17005 -2.13304
H -3.45547 -0.05646 -1.17046
H -2.77147 1.56914 -1.37976
H -1.07293 -1.71811 2.38763
H 1.28690 -1.52997 2.50610
H -1.55240 -2.65371 -1.45131
H 0.62870 -2.27178 -2.39073
H 2.74224 1.83596 -1.30529
H 1.88324 3.46267 0.60410
H -0.54024 2.66424 1.40962